Version 4
SHEET 1 1124 680
WIRE -224 -96 -288 -96
WIRE -16 -96 -224 -96
WIRE 32 -48 32 -80
WIRE -48 32 -288 32
WIRE -16 32 -48 32
WIRE 32 96 32 48
WIRE 32 96 -128 96
WIRE 192 96 32 96
WIRE 32 112 32 96
WIRE -128 128 -128 96
WIRE -48 176 -48 32
WIRE -16 176 -48 176
WIRE -224 208 -224 -96
WIRE -176 208 -224 208
WIRE -128 272 -128 224
WIRE -48 272 -128 272
WIRE 32 272 32 192
WIRE 32 272 -48 272
WIRE -48 288 -48 272
FLAG -288 -96 VIN1
FLAG -288 32 VIN2
FLAG 32 -176 VDD
FLAG 192 96 VOUT
FLAG -48 288 0
SYMBOL nmos4 -176 128 R0
SYMATTR InstName M2
SYMATTR Value2 l=90n w='(T_SIZE)*200n'
SYMBOL pmos4 -16 -176 R0
SYMATTR InstName M5
SYMATTR Value2 l=90n w='(T_SIZE)*400n'
SYMBOL pmos4 -16 -48 R0
SYMATTR InstName M7
SYMATTR Value2 l=90n w='(T_SIZE)*400n'
SYMBOL nmos4 -16 96 R0
SYMATTR InstName M1
SYMATTR Value2 l=90n w='(T_SIZE)*200n'
TEXT -208 -344 Left 2 !.param T_SIZE=1
