Version 4
SHEET 1 1452 680
WIRE 880 -32 880 -112
WIRE 656 48 -208 48
WIRE 768 48 720 48
WIRE 1136 80 1008 80
WIRE 1248 80 1200 80
WIRE 1392 80 1248 80
WIRE -208 112 -208 48
WIRE 656 112 80 112
WIRE 768 112 720 112
WIRE 1248 128 1248 80
WIRE 1392 144 1392 80
WIRE -208 240 -208 192
WIRE 80 240 80 192
WIRE 1248 240 1248 208
WIRE 1392 240 1392 208
WIRE 368 432 368 384
FLAG 368 304 VDD
FLAG 368 432 0
FLAG 80 240 0
FLAG 1248 240 0
FLAG 1392 240 0
FLAG 880 -112 VDD
FLAG -208 240 0
SYMBOL voltage 80 96 R0
SYMATTR InstName V1
SYMATTR Value PULSE(0 1 1n 10p 10p 2n 4n)
SYMBOL voltage 368 288 R0
WINDOW 0 28 18 Left 2
SYMATTR InstName VDD1
SYMATTR Value 1
SYMBOL cap 1376 144 R0
SYMATTR InstName C1
SYMATTR Value 100f
SYMBOL res 1232 112 R0
SYMATTR InstName R1
SYMATTR Value 100k
SYMBOL and 816 80 R0
SYMATTR InstName X2
SYMBOL Digital\\inv 656 -16 R0
SYMATTR InstName A1
SYMBOL Digital\\inv 656 48 R0
SYMATTR InstName A2
SYMBOL Digital\\inv 1136 16 R0
SYMATTR InstName A3
SYMBOL voltage -208 96 R0
WINDOW 123 0 0 Left 2
WINDOW 39 0 0 Left 2
SYMATTR InstName V2
SYMATTR Value PULSE(0 1 2n 10p 10p 2n 4n)
TEXT 96 -40 Left 2 !.tran 0 8n 0 1p
TEXT 96 -72 Left 2 !.include 90nm_bulk.txt
