Version 4
SHEET 1 1996 980
WIRE 1008 -96 1008 -176
WIRE 1008 -96 672 -96
WIRE 1136 -96 1008 -96
WIRE 1328 -96 1136 -96
WIRE 1648 -96 1328 -96
WIRE 560 -16 512 -16
WIRE 896 16 816 16
WIRE 1008 16 1008 -96
WIRE 1328 16 1328 -96
WIRE 512 48 512 -16
WIRE 512 48 -208 48
WIRE 560 48 512 48
WIRE 1648 48 1648 -96
WIRE 896 96 896 16
WIRE 1216 96 1184 96
WIRE -208 112 -208 48
WIRE 448 112 80 112
WIRE 1184 128 1184 96
WIRE 1184 128 1152 128
WIRE 1536 128 1472 128
WIRE 1184 160 1184 128
WIRE 1216 160 1184 160
WIRE 1856 160 1792 160
WIRE 1952 160 1856 160
WIRE 448 208 448 112
WIRE 560 208 448 208
WIRE 1856 208 1856 160
WIRE 1952 208 1952 160
WIRE -208 240 -208 192
WIRE 80 240 80 192
WIRE 896 240 896 160
WIRE 896 240 816 240
WIRE 1136 256 1136 -96
WIRE 1328 256 1136 256
WIRE 448 272 448 208
WIRE 560 272 448 272
WIRE 1952 288 1952 272
WIRE 1216 336 1200 336
WIRE 1536 368 1536 192
WIRE 1536 368 1472 368
WIRE 1200 400 1200 336
WIRE 1200 400 1056 400
WIRE 1216 400 1200 400
WIRE 1056 528 1056 480
WIRE 144 560 144 512
FLAG 144 432 VDD
FLAG 144 560 0
FLAG 80 240 0
FLAG -208 240 0
FLAG 1056 528 0
FLAG 1008 -176 VDD
FLAG 1856 288 0
FLAG 1952 288 0
SYMBOL voltage 80 96 R0
SYMATTR InstName V1
SYMATTR Value PULSE(0 1 1n 10p 10p 2n 4n)
SYMBOL voltage 144 416 R0
WINDOW 0 28 18 Left 2
SYMATTR InstName VDD1
SYMATTR Value 1
SYMBOL voltage -208 96 R0
WINDOW 123 0 0 Left 2
WINDOW 39 0 0 Left 2
SYMATTR InstName V2
SYMATTR Value PULSE(0 1 1n 10p 10p 2n 4n)
SYMBOL NOR 608 16 R0
SYMATTR InstName X1
SYMBOL NOR 608 240 R0
SYMATTR InstName X2
SYMBOL NOR 944 128 R0
SYMATTR InstName X3
SYMBOL NOR 1264 128 R0
SYMATTR InstName X4
SYMBOL NOR 1264 368 R0
SYMATTR InstName X5
SYMBOL NOR 1584 160 R0
SYMATTR InstName X6
SYMBOL voltage 1056 384 R0
WINDOW 123 0 0 Left 2
WINDOW 39 0 0 Left 2
SYMATTR InstName V3
SYMATTR Value PULSE(0 1 1n 10p 10p 2n 4n)
SYMBOL res 1840 192 R0
SYMATTR InstName R1
SYMBOL cap 1936 208 R0
SYMATTR InstName C1
TEXT 96 -40 Left 2 !.tran 0 8n 0 1p
TEXT 96 -72 Left 2 !.include 90nm_bulk.txt
