Version 4
SHEET 1 1820 680
WIRE 880 -32 880 -112
WIRE 464 -16 -208 -16
WIRE 480 -16 464 -16
WIRE 768 -16 720 -16
WIRE 768 48 768 -16
WIRE 80 64 64 64
WIRE 176 64 80 64
WIRE 1072 80 1008 80
WIRE 1088 80 1072 80
WIRE 1328 80 1312 80
WIRE 1584 80 1328 80
WIRE 1760 80 1584 80
WIRE -208 112 -208 -16
WIRE 80 112 80 64
WIRE 1584 128 1584 80
WIRE 1760 128 1760 80
WIRE 176 144 176 64
WIRE 480 144 176 144
WIRE 496 144 480 144
WIRE 768 144 768 112
WIRE 768 144 736 144
WIRE -208 240 -208 192
WIRE 80 240 80 192
WIRE 1584 240 1584 208
WIRE 1760 240 1760 192
WIRE 368 432 368 384
FLAG 368 304 VDD
FLAG 368 432 0
FLAG 80 240 0
FLAG 880 -112 VDD
FLAG -208 240 0
FLAG 1760 240 0
FLAG 1584 240 0
FLAG 576 -80 VDD1
FLAG 592 80 VDD2
SYMBOL voltage 80 96 R0
SYMATTR InstName V1
SYMATTR Value PULSE(0 1 1n 10p 10p 2n 4n)
SYMBOL voltage 368 288 R0
WINDOW 0 28 18 Left 2
SYMATTR InstName VDD1
SYMATTR Value 1
SYMBOL and 816 80 R0
SYMATTR InstName X2
SYMBOL voltage -208 96 R0
WINDOW 123 0 0 Left 2
WINDOW 39 0 0 Left 2
SYMATTR InstName V2
SYMATTR Value PULSE(0 1 2n 10p 10p 2n 4n)
SYMBOL invertor 1136 80 R0
SYMATTR InstName X1
SYMBOL invertor 544 144 R0
SYMATTR InstName X5
SYMBOL invertor 528 -16 R0
SYMATTR InstName X7
SYMBOL res 1568 112 R0
SYMATTR InstName R1
SYMATTR Value 100k
SYMBOL cap 1744 128 R0
SYMATTR InstName C1
SYMATTR Value 100f
TEXT -72 -56 Left 2 !.tran 0 8n 0 1p
TEXT -104 -96 Left 2 !.include 90nm_bulk.txt
