Version 4
SHEET 1 2180 680
WIRE 1216 -432 960 -432
WIRE 1520 -432 1216 -432
WIRE 1104 -352 1008 -352
WIRE 1120 -352 1104 -352
WIRE 1008 -288 1008 -352
WIRE 1104 -288 1008 -288
WIRE 1536 -176 1216 -176
WIRE 1008 -96 1008 -288
WIRE 1104 -96 1008 -96
WIRE 880 -80 880 -112
WIRE 960 -80 960 -432
WIRE 960 -80 880 -80
WIRE 1344 -64 1344 -320
WIRE 880 -32 880 -80
WIRE 1008 -32 1008 -96
WIRE 1104 -32 1008 -32
WIRE 496 48 -208 48
WIRE 544 48 496 48
WIRE 752 48 720 48
WIRE 768 48 752 48
WIRE 1008 80 1008 -32
WIRE 1344 80 1344 -64
WIRE 1344 80 1328 80
WIRE 1792 80 1344 80
WIRE 2160 80 2048 80
WIRE -208 112 -208 48
WIRE 544 112 80 112
WIRE 752 112 720 112
WIRE 768 112 752 112
WIRE 1520 112 1520 -432
WIRE 1520 112 1216 112
WIRE 544 160 544 112
WIRE 544 160 496 160
WIRE 496 192 496 160
WIRE 752 192 752 112
WIRE 1008 192 1008 80
WIRE 1104 192 1008 192
WIRE 1344 224 1344 80
WIRE -208 240 -208 192
WIRE 80 240 80 192
WIRE 1008 256 1008 192
WIRE 1104 256 1008 256
WIRE 1520 368 1520 112
WIRE 1520 368 1216 368
WIRE 368 432 368 384
WIRE 1008 448 1008 256
WIRE 1104 448 1008 448
WIRE 1344 480 1344 224
WIRE 800 512 800 464
WIRE 1008 512 1008 448
WIRE 1104 512 1008 512
WIRE 544 528 544 480
FLAG 368 304 VDD
FLAG 368 432 0
FLAG 80 240 0
FLAG -208 240 0
FLAG 2160 80 0
FLAG 544 400 VDD1
FLAG 544 528 0
FLAG 608 128 VDD1
FLAG 1904 16 VDD1
FLAG 800 512 0
FLAG 800 384 VDD3
FLAG 880 -112 VDD3
FLAG 608 -16 VDD1
SYMBOL voltage 80 96 R0
SYMATTR InstName V1
SYMATTR Value PULSE(0 1 1n 10p 10p 2n 4n)
SYMBOL voltage 368 288 R0
WINDOW 0 28 18 Left 2
SYMATTR InstName VDD1
SYMATTR Value 1
SYMBOL and 816 80 R0
SYMATTR InstName X2
SYMBOL voltage -208 96 R0
WINDOW 123 0 0 Left 2
WINDOW 39 0 0 Left 2
SYMATTR InstName V2
SYMATTR Value PULSE(0 1 2n 10p 10p 2n 4n)
SYMBOL and 1152 224 R0
SYMATTR InstName X1
SYMBOL and 1152 480 R0
SYMATTR InstName X3
SYMBOL and 1152 -64 R0
SYMATTR InstName X4
SYMBOL and 1152 -320 R0
SYMATTR InstName X5
SYMBOL invertor 560 48 R0
SYMATTR InstName X6
SYMBOL invertor 560 192 R0
SYMATTR InstName X7
SYMBOL invertor 1856 80 R0
SYMATTR InstName X8
SYMBOL voltage 544 384 R0
WINDOW 0 28 18 Left 2
SYMATTR InstName VDD2
SYMATTR Value 1
SYMBOL voltage 800 368 R0
WINDOW 0 28 18 Left 2
SYMATTR InstName VDD3
SYMATTR Value 1
TEXT 96 -40 Left 2 !.tran 0 8n 0 1p
TEXT 96 -72 Left 2 !.include 90nm_bulk.txt
